Version 4
SHEET 1 880 680
WIRE 176 -64 0 -64
WIRE 176 -16 176 -64
WIRE 0 0 0 -64
WIRE 176 96 176 64
WIRE 320 96 176 96
WIRE 400 96 320 96
WIRE 320 128 320 96
WIRE 176 208 176 96
WIRE 320 240 320 208
WIRE 320 240 208 240
WIRE 320 272 320 240
WIRE 176 368 176 272
WIRE 320 368 320 352
WIRE 320 368 176 368
WIRE 0 400 0 80
WIRE 176 400 176 368
FLAG 176 400 0
FLAG 0 400 0
FLAG 400 96 2V5A
IOPIN 400 96 Out
SYMBOL References\\LT1009 176 240 R0
SYMATTR InstName U1
SYMBOL res 160 -32 R0
SYMATTR InstName R1
SYMATTR Value 470
SYMBOL voltage 0 -16 R0
WINDOW 123 0 0 Left 0
WINDOW 39 24 124 Left 2
SYMATTR SpiceLine Rser=0
SYMATTR InstName V1
SYMATTR Value 3.3
SYMBOL res 304 256 R0
SYMATTR InstName R2
SYMATTR Value {Lo}
SYMBOL res 304 112 R0
SYMATTR InstName R3
SYMATTR Value {Hi}
TEXT -8 448 Left 2 !.tran 1s
TEXT -8 472 Left 2 !.step param Lo list 1n 1k 5k 9.999k
TEXT -8 496 Left 2 !.param Hi=10k-Lo
